*Heading
** Job name: sprain Model name: ankle_model
** Generated by: Abaqus/CAE 2021
*Preprint, echo=NO, model=NO, history=NO, contact=NO
** ----------------------------------------------------------------
** 
** PART INSTANCE: talus
** 
*System
    -1.1e-05,      -7e-06,   -6.062668,    0.999989,      -7e-06,   -6.062668
*Node
  70000,     -16.2493,   29.6315994,   2.59649992
  70001,     -16.2493,   19.1088009,   2.59649992
  70002,     -16.2493,   19.1088009,           0.
  70003,     -16.2493,   29.6315994,           0.
  70004,   -36.053299,   19.1088009,   2.59649992
  70005,   -36.053299,   19.1088009,           0.
*Element, type=S4R
70000, 70000, 70001, 70002, 70003
70001, 70001, 70004, 70005, 70002
70002, 70004, 70000, 70003, 70005
*Element, type=S3
70003, 70001, 70000, 70004
70004, 70005, 70003, 70002
*Node
  70006,   -36.053299,   19.1088009,   2.59649992
*Nset, nset=talus-RefPt_
70006, 
*Nset, nset=talus_RP
 70006,
*Elset, elset=talus_elements, generate
 70000,  70004,      1
** Section: simple_shell
*Shell Section, elset=talus_elements, material=bone
1., 5
** ----------------------------------------------------------------
** 
** PART INSTANCE: smooth_shank_STL
** 
*System
*Node
      1,  -96.3364334,   125.498619,  -4.76004505
      2,  -96.0891495,   125.498619,  0.229763016
      3,  -91.9614792,   125.498619,  -2.69032788
      5,  -96.0516281,   125.498611,  -9.74681759
      6,  -95.5438461,    121.87664,  -4.38875532
     11,  -92.6695404,   125.498619,  -7.17651987
     18,  -95.0210876,   120.801567,  0.777585983
     20,  -95.1275024,   125.498611,   5.11797094
     21,   -90.689888,   125.498619,   2.44338989
     29,  -95.2803726,   125.498619,  -14.6851807
     30,  -94.7079163,   121.663528,  -12.5388212
     33,  -94.6615677,   119.607117,  -8.49564362
     39,   -90.301445,   125.498604,  -12.0086966
     45,  -94.6385574,   117.247078,  -3.73534465
     50,  -94.0332108,   125.498619,  -19.5213661
     51,  -93.6636276,   120.830986,  -16.7705441
     57,  -89.5849686,   125.498611,  -18.6055813
     63,    -93.64077,   119.387512,   5.32332993
     66,  -92.6455688,   122.057732,   9.55718899
     68,  -93.2595673,   125.498611,   9.73225403
** ... 1290 like lines cut
*Element, type=S3
   1,    1,    2,    3
   2,    1,    5,    6
   3,    1,    6,    2
   4,    1,   11,    5
   5,    1,    3,   11
   6,    2,    6,   18
   7,    2,   20,   21
   8,    2,   18,   20
   9,    2,   21,    3
  10,    5,   29,   30
  11,    5,   30,   33
  12,    5,   33,    6
  13,    5,   11,   39
  14,    5,   39,   29
  15,    6,   33,   45
  16,    6,   45,   18
  17,   29,   50,   51
  18,   29,   51,   30
  19,   29,   39,   57
  20,   29,   57,   50
** ... 2526 like lines cut
*Node
   9019,  -55.0940514,   125.498619,  -3.95073891
*Nset, nset=smooth_shank_STL-RefPt_
9019, 
*Nset, nset=smooth_shank_STL_RP
 9019,
*Nset, nset=smooth_shank_STL_nodes
    1,    2,    3,    5,    6,   11,   18,   20,   21,   29,   30,   33,   39,   45,   50,   51
   57,   63,   66,   68,   69,   78,   84,   89,   96,  101,  102,  111,  113,  120,  126,  129
  135,  141,  150,  153,  159,  161,  168,  174,  180,  186,  189,  194,  198,  200,  206,  213
  219,  221,  228,  237,  240,  246,  252,  258,  264,  270,  276,  278,  288,  290,  297,  303
  305,  312,  315,  321,  327,  333,  339,  342,  351,  357,  362,  369,  375,  381,  387,  389
  396,  399,  405,  407,  414,  417,  423,  429,  435,  437,  444,  447,  453,  459,  465,  471
  477,  483,  489,  495,  501,  507,  513,  519,  525,  527,  534,  540,  546,  552,  558,  564
  570,  576,  582,  588,  594,  600,  603,  608,  612,  618,  620,  627,  633,  639,  644,  651
  654,  660,  662,  668,  675,  681,  683,  690,  696,  701,  708,  714,  720,  722,  723,  732
  741,  747,  753,  758,  762,  764,  771,  776,  777,  779,  786,  792,  801,  807,  813,  819
  825,  828,  833,  834,  840,  846,  848,  851,  858,  864,  870,  879,  885,  891,  895,  896
  897,  899,  903,  905,  918,  927,  936,  942,  948,  954,  960,  966,  972,  978,  984,  986
  993,  999, 1005, 1007, 1014, 1020, 1026, 1031, 1041, 1049, 1056, 1065, 1071, 1076, 1077, 1089
 1095, 1097, 1104, 1110, 1121, 1128, 1134, 1140, 1146, 1158, 1164, 1170, 1172, 1179, 1182, 1188
 1194, 1197, 1203, 1209, 1215, 1218, 1224, 1230, 1242, 1248, 1251, 1257, 1263, 1269, 1278, 1284
 1290, 1296, 1308, 1310, 1317, 1326, 1335, 1337, 1344, 1350, 1356, 1362, 1374, 1383, 1389, 1391
 1398, 1404, 1410, 1412, 1422, 1425, 1431, 1437, 1452, 1458, 1470, 1472, 1482, 1488, 1494, 1500
 1506, 1515, 1521, 1527, 1533, 1539, 1541, 1548, 1554, 1560, 1566, 1572, 1581, 1596, 1605, 1617
 1623, 1626, 1635, 1641, 1647, 1653, 1655, 1662, 1674, 1677, 1683, 1688, 1692, 1698, 1704, 1710
 1716, 1722, 1731, 1734, 1740, 1752, 1761, 1764, 1770, 1776, 1782, 1788, 1794, 1800, 1806, 1812
** ... 62 like lines cut
*Elset, elset=smooth_shank_STL_elements
    1,    2,    3,    4,    5,    6,    7,    8,    9,   10,   11,   12,   13,   14,   15,   16
   17,   18,   19,   20,   21,   22,   23,   24,   25,   26,   27,   28,   29,   30,   31,   32
   33,   34,   35,   36,   37,   38,   39,   40,   41,   42,   43,   44,   45,   46,   47,   48
   49,   50,   51,   52,   53,   54,   55,   56,   57,   58,   59,   60,   61,   62,   63,   64
   65,   66,   67,   68,   69,   70,   71,   72,   73,   74,   75,   76,   77,   78,   79,   80
   81,   82,   83,   84,   85,   86,   87,   88,   89,   90,   91,   92,   93,   94,   95,   96
   97,   98,   99,  100,  101,  102,  103,  104,  105,  106,  107,  108,  109,  110,  111,  112
  113,  114,  115,  116,  117,  118,  119,  120,  121,  122,  123,  124,  125,  126,  127,  128
  129,  130,  131,  132,  133,  134,  135,  136,  137,  138,  139,  140,  141,  142,  143,  144
  145,  146,  147,  148,  149,  150,  151,  152,  153,  154,  155,  156,  157,  158,  159,  160
  161,  162,  163,  164,  165,  166,  167,  168,  169,  170,  171,  172,  173,  174,  175,  176
  177,  178,  179,  180,  181,  182,  183,  184,  185,  186,  187,  188,  189,  190,  191,  192
  193,  194,  195,  196,  197,  198,  199,  200,  201,  202,  203,  204,  205,  206,  207,  208
  209,  210,  211,  212,  213,  214,  215,  216,  217,  218,  219,  220,  221,  222,  223,  224
  225,  226,  227,  228,  229,  230,  231,  232,  233,  234,  235,  236,  237,  238,  239,  240
  241,  242,  243,  244,  245,  246,  247,  248,  249,  250,  251,  252,  253,  254,  255,  256
  257,  258,  259,  260,  261,  262,  263,  264,  265,  266,  267,  268,  269,  270,  271,  272
  273,  274,  275,  276,  277,  278,  279,  280,  281,  282,  283,  284,  285,  286,  287,  288
  289,  290,  291,  292,  293,  294,  295,  296,  297,  298,  299,  300,  301,  302,  305,  306
  307,  308,  309,  310,  311,  312,  313,  314,  315,  316,  317,  318,  319,  320,  321,  322
** ... 140 like lines cut
*Elset, elset=_smooth_shank_STL_surf_SPOS
    2,    3,    6,    8,   10,   11,   12,   15,   16,   17,   18,   21,   22,   24,   26,   27
   28,   29,   30,   31,   32,   33,   34,   35,   37,   38,   39,   40,   41,   42,   43,   44
   45,   46,   47,   48,   49,   50,   53,   54,   55,   58,   59,   60,   61,   62,   63,   64
   65,   67,   69,   70,   71,   72,   73,   74,   75,   78,   79,   80,   81,   82,   83,   84
   85,   86,   87,   88,   92,   93,   94,   95,   96,   97,   98,   99,  100,  104,  105,  106
  107,  108,  109,  110,  111,  112,  113,  114,  115,  116,  117,  118,  119,  120,  121,  122
  123,  124,  130,  132,  133,  134,  135,  136,  137,  138,  139,  140,  141,  142,  145,  146
  147,  148,  149,  150,  151,  152,  155,  156,  157,  158,  159,  160,  161,  162,  163,  164
  165,  167,  168,  169,  170,  171,  172,  173,  174,  175,  176,  177,  178,  179,  180,  181
  182,  183,  186,  187,  190,  191,  193,  194,  195,  196,  197,  198,  199,  200,  201,  202
  203,  204,  205,  206,  207,  208,  209,  210,  211,  212,  213,  214,  215,  216,  217,  218
  219,  220,  221,  222,  223,  224,  230,  231,  234,  235,  236,  237,  238,  239,  240,  241
  242,  243,  244,  245,  246,  249,  250,  251,  252,  253,  254,  255,  256,  257,  258,  259
  260,  261,  262,  263,  264,  265,  266,  267,  268,  269,  270,  271,  272,  273,  274,  275
  278,  279,  280,  281,  282,  283,  284,  285,  286,  287,  290,  291,  292,  295,  296,  297
  298,  299,  300,  301,  302,  305,  306,  307,  308,  309,  310,  311,  312,  313,  314,  315
  316,  317,  318,  319,  320,  321,  322,  323,  324,  325,  326,  327,  328,  329,  330,  331
  332,  333,  334,  338,  339,  342,  343,  344,  347,  350,  352,  353,  354,  355,  356,  357
  358,  359,  361,  362,  363,  364,  365,  366,  367,  368,  369,  370,  371,  372,  373,  375
  376,  377,  378,  379,  380,  381,  382,  383,  386,  387,  388,  389,  390,  392,  393,  394
** ... 113 like lines cut
*Surface, type=ELEMENT, name=smooth_shank_STL_surf
_smooth_shank_STL_surf_SPOS, SPOS
** Section: simple_shell
*Shell Section, elset=smooth_shank_STL_elements, material=bone
1., 5
** ----------------------------------------------------------------
** 
** PART INSTANCE: smooth_anklemorph_STL
** 
*Node
  40000,  -89.1870651,  -27.0688171,   -2.0712719
  40001,  -88.6698303,  -24.0950184,   1.29028296
  40002,  -88.5953903,  -22.7383442,  -3.78868699
  40003,  -88.3940048,  -26.9994335,  -6.77755785
  40004,  -88.2723541,  -26.9887905,   2.82061195
  40005,  -86.9719849,  -22.0616131,   3.40919423
  40006,   -87.922905,  -19.7656574, -0.594572008
  40007,  -88.0152893,  -17.4096432,  -5.06035423
  40008,  -87.3015518,  -21.1155262,  -8.95019245
  40009,  -87.7515945,  -26.9432316,  -9.78847599
  40010,  -86.7680664,  -26.8571835,    5.4757328
  40011,  -87.1741714,  -14.7624044,   -1.5232259
  40012,  -87.3142929,  -12.2157507,   -5.6474762
  40013,  -86.6909866,  -14.5448771,  -9.21057987
  40014,  -85.3615036,  -17.7686634,   2.75572801
  40015,   -86.138237,  -22.7464542,  -13.9481592
  40016,  -86.8359909,  -28.2988071,   -14.425395
  40017,  -86.2473221,  -10.5207376,   -2.5179441
  40018,  -86.9385605,  -8.33805084,  -5.62710619
  40019,  -86.2716599,  -8.75534916,  -9.62343597
** ... 767 like lines cut
*Element, type=SFM3D3
40000, 40000, 40001, 40002
40001, 40000, 40002, 40003
40002, 40000, 40004, 40001
40003, 40001, 40004, 40005
40004, 40001, 40006, 40002
40005, 40001, 40005, 40006
40006, 40002, 40007, 40008
40007, 40002, 40006, 40007
40008, 40002, 40008, 40003
40009, 40003, 40008, 40009
40010, 40004, 40010, 40005
40011, 40007, 40006, 40011
40012, 40007, 40012, 40013
40013, 40007, 40011, 40012
40014, 40007, 40013, 40008
40015, 40006, 40005, 40014
40016, 40006, 40014, 40011
40017, 40009, 40008, 40015
40018, 40009, 40015, 40016
40019, 40012, 40011, 40017
** ... 1393 like lines cut
*Nset, nset=smooth_anklemorph_STL_nodes, generate
 40000,  40786,      1
*Elset, elset=smooth_anklemorph_STL_elements, generate
 40000,  41412,      1
*Elset, elset=_smooth_anklemorph_STL_surf_SPOS, generate
 40000,  41412,      1
*Surface, type=ELEMENT, name=smooth_anklemorph_STL_surf
_smooth_anklemorph_STL_surf_SPOS, SPOS
** Section: surface
*Surface Section, elset=smooth_anklemorph_STL_elements, density=1e-09
** ----------------------------------------------------------------
** 
** PART INSTANCE: smooth_foot_STL
** 
*Node
  30000,  -91.0320969,  -43.2856789, -0.538065016
  30001,  -90.9315109,   -49.052845, -0.268187016
  30002,  -90.3706741,  -45.8617897,   4.11553526
  30003,  -90.4546356,  -41.2052345,   3.83556795
  30004,  -90.3295975,  -37.3871117,  0.732764006
  30005,   -90.388176,  -46.2737389,  -4.87054491
  30006,  -90.3191452,   -39.827137,  -4.39811707
  30007,  -89.5048294,  -53.3616371,  -4.09367037
  30008,  -89.9586411,  -50.3878555,   4.28442812
  30009,  -89.5225754,  -54.3965492,   1.72370303
  30010,  -88.2325745,  -42.8208504,   8.45410442
  30011,  -88.3989334,  -37.2981224,   6.37111902
  30012,  -89.9340134,  -42.7646637,  -9.22011948
  30013,  -89.5755539,  -49.0679665,  -9.26867199
  30014,   -88.111908,  -48.1140594,   8.84065247
  30015,  -89.5532608,  -33.0857506,  -3.24092102
  30016,  -88.9502106,  -31.9261761,   3.90775824
  30017,   -89.336113,  -36.9875145,  -8.56316471
  30018,  -88.2767029,  -53.4074211,   7.56839705
  30019,  -89.4670715,  -45.3161697,   -13.030653
** ... 2252 like lines cut
*Element, type=S3
30000, 30000, 30001, 30002
30001, 30000, 30003, 30004
30002, 30000, 30005, 30001
30003, 30000, 30002, 30003
30004, 30000, 30004, 30006
30005, 30000, 30006, 30005
30006, 30001, 30005, 30007
30007, 30001, 30008, 30002
30008, 30001, 30009, 30008
30009, 30001, 30007, 30009
30010, 30003, 30002, 30010
30011, 30003, 30011, 30004
30012, 30003, 30010, 30011
30013, 30005, 30006, 30012
30014, 30005, 30012, 30013
30015, 30005, 30013, 30007
30016, 30002, 30008, 30014
30017, 30002, 30014, 30010
30018, 30004, 30015, 30006
30019, 30004, 30016, 30015
** ... 4435 like lines cut
*Node
  32272,  -87.0954971,  -24.7957001,   4.82280016
*Nset, nset=smooth_foot_STL-RefPt_
32272, 
*Nset, nset=smooth_foot_STL_RP
 32272,
*Nset, nset=smooth_foot_STL_nodes, generate
 30000,  32271,      1
*Elset, elset=smooth_foot_STL_elements, generate
 30000,  34454,      1
*Elset, elset=_smooth_foot_STL_surf_SPOS, generate
 30000,  34454,      1
*Surface, type=ELEMENT, name=smooth_foot_STL_surf
_smooth_foot_STL_surf_SPOS, SPOS
** Section: simple_shell
*Shell Section, elset=smooth_foot_STL_elements, material=bone
1., 5
*System
*Node
   9020,  -40.0044212,   12.5611849,   33.3734627
*Node
   9021,  -32.1021996,   25.6564007,  -40.3058014
*Element, type=CONN3D2
70005, 9020, 70006
*Connector Section, elset=talocrural_axis, behavior=hinge_talocrural
Hinge,
CSYS_talocrural,
*Element, type=CONN3D2
70006, 70003, 32272
*Connector Section, elset=subtalar_axis, behavior=hinge_subtalar
Hinge,
CSYS_subtalar,
*Elset, elset="Bottom Ring"
 40000, 40001, 40002, 40003, 40008, 40009, 40010, 40017, 40018, 40027, 40032, 40033, 40034, 40052, 40053, 40090
 40091, 40102, 40103, 40171, 40172, 40210, 40212, 40230, 40231, 40253, 40264, 40271, 40272, 40296, 40299, 40312
 40314, 40340, 40347, 40355, 40366, 40378, 40385, 40393, 40408, 40415, 40416, 40424, 40432, 40449, 40451, 40452
 40473, 40483, 40484, 40487, 40503, 40515, 40516, 40519, 40530, 40539, 40546, 40547, 40550, 40568, 40572, 40573
 40574, 40593, 40596, 40597, 40598, 40622, 40623, 40626, 40629, 40648, 40649, 40656, 40657, 40664, 40666, 40689
 40690, 40697, 40698, 40713, 40715, 40717, 40718, 40739, 40749, 40756, 40757, 40778, 40779, 40782, 40796, 40797
 40821, 40834, 40843, 40852, 40875, 40885, 40899, 40900, 40932, 40941, 40966, 40973, 40998, 41007, 41024, 41037
 41060, 41061, 41079, 41100, 41106, 41107, 41130, 41145, 41149, 41152, 41170, 41175, 41185, 41188, 41204, 41209
 41215, 41220, 41228, 41233, 41235, 41246, 41253, 41263, 41266, 41267, 41274, 41290, 41291, 41292, 41293, 41301
 41312, 41313, 41314, 41315, 41317, 41324, 41328, 41329, 41330, 41334, 41335, 41342, 41353, 41355, 41360, 41365
 41370, 41372, 41378, 41379, 41384, 41385, 41388, 41389, 41390, 41394, 41397, 41398, 41399, 41403, 41404, 41405
 41406, 41407, 41408, 41409, 41410, 41411, 41412
*Nset, nset=LM
9020,
*Nset, nset=Node
 40634,
*Nset, nset=RPshank
 9019,
*Nset, nset=subtalar_axis
 70003,
*Nset, nset=subtalar_axis
 32272,
*Elset, elset=subtalar_axis
 70006,
*Nset, nset=talocrural_axis
9020,
*Nset, nset=talocrural_axis
 70006,
*Elset, elset=talocrural_axis
 70005,
*Elset, elset="_Foot 1_"
 32297,
*Surface, type=ELEMENT, name="Foot 1"
"_Foot 1_", 
*Elset, elset="_Foot 2_"
 31177,
*Surface, type=ELEMENT, name="Foot 2"
"_Foot 2_", 
*Elset, elset=_Foot3_
 30835,
*Surface, type=ELEMENT, name=Foot3
_Foot3_, 
*Elset, elset="_Morph 1_"
 41397,
*Surface, type=ELEMENT, name="Morph 1"
"_Morph 1_", 
*Elset, elset="_Morph 2_"
 40782,
*Surface, type=ELEMENT, name="Morph 2"
"_Morph 2_", 
*Elset, elset="_Morph 3_"
 40623,
*Surface, type=ELEMENT, name="Morph 3"
"_Morph 3_", 
*Elset, elset=_Surf-7_
 40593,
*Surface, type=ELEMENT, name=Surf-7
_Surf-7_, 
*Orientation, name=CSYS_talocrural
-0.105012881909991, -0.174022789974694, 0.97912632647804, -0.018557796506232, 0.984741625285244, 0.173030458646476
1, 0.
*Orientation, name=CSYS_subtalar
0.787179579781257, 0.6047474710654, -0.120949598657485, -0.597732956660301, 0.796417287758122, 0.0918412558828124
1, 0.
** Constraint: Constraint-4
*Tie, name=Constraint-4, adjust=no, position tolerance=1.
"Morph 1", "Foot 1"
** Constraint: Test2
*Tie, name=Test2, adjust=no, position tolerance=1.
"Morph 2", "Foot 2"
** Constraint: Test3
*Tie, name=Test3, adjust=no, position tolerance=1.
"Morph 3", Foot3
** Constraint: rigid_foot
*Rigid Body, ref node=smooth_foot_STL_RP, elset=smooth_foot_STL_elements
** Constraint: rigid_shank
*Rigid Body, ref node=smooth_shank_STL_RP, elset=smooth_shank_STL_elements
** Constraint: rigid_talus
*Rigid Body, ref node=talus_RP, elset=talus_elements
*Connector Behavior, name=hinge_talocrural
*Connector Elasticity, nonlinear, component=4
  -30562.,    -1.0472
 -26965.7,   -1.03133
 -23799.2,   -1.01546
 -21011.2,  -0.999598
 -18556.3,  -0.983731
 -16394.7,  -0.967864
 -14491.5,  -0.951998
 -12815.7,  -0.936131
 -11340.2,  -0.920265
  -10041.,  -0.904398
 -8896.99,  -0.888531
 -7889.71,  -0.872665
 -7002.77,  -0.856798
 -6221.81,  -0.840931
 -5534.14,  -0.825065
 -4928.62,  -0.809198
 -4395.43,  -0.793331
 -3925.91,  -0.777465
 -3512.46,  -0.761598
 -3148.36,  -0.745732
** ... 82 like lines cut
*Connector Behavior, name=hinge_subtalar
*Connector Elasticity, nonlinear, component=4
   -1e+06,   -0.453786
 -8218.92,   -0.226893
 -6817.45,   -0.218431
 -5651.79,   -0.209968
 -4682.27,   -0.201506
 -3875.88,   -0.193044
 -3205.18,   -0.184582
 -2647.33,    -0.17612
 -2183.35,   -0.167657
 -1797.44,   -0.159195
 -1476.46,   -0.150733
 -1209.48,   -0.142271
 -987.426,   -0.133809
 -802.727,   -0.125346
 -649.099,   -0.116884
 -521.313,   -0.108422
 -415.019,  -0.0999598
 -326.598,  -0.0914976
 -253.041,  -0.0830354
 -191.844,  -0.0745732
** ... 82 like lines cut
*Amplitude, name=UAMP1, definition=USER, variables=1
*Amplitude, name=amp_dorsiflexion
             0.,              1.,          0.0101,           0.998,          0.0202,           0.992,          0.0303,          0.9819
         0.0404,          0.9679,          0.0505,          0.9501,          0.0606,          0.9284,          0.0707,          0.9029
         0.0808,          0.8738,          0.0909,          0.8413,           0.101,          0.8053,          0.1111,           0.766
         0.1212,          0.7237,          0.1313,          0.6785,          0.1414,          0.6306,          0.1515,          0.5801
         0.1616,          0.5272,          0.1717,          0.4723,          0.1818,          0.4154,          0.1919,          0.3569
          0.202,          0.2969,          0.2121,          0.2358,          0.2222,          0.1736,          0.2323,          0.1108
         0.2424,          0.0476,          0.2525,         -0.0159,          0.2626,         -0.0792,          0.2727,         -0.1423
         0.2828,         -0.2048,          0.2929,         -0.2665,           0.303,         -0.3271,          0.3131,         -0.3863
         0.3232,         -0.4441,          0.3333,            -0.5,          0.3434,         -0.5539,          0.3535,         -0.6056
         0.3636,         -0.6549,          0.3737,         -0.7015,          0.3838,         -0.7453,          0.3939,         -0.7861
          0.404,         -0.8237,          0.4141,          -0.858,          0.4242,         -0.8888,          0.4343,         -0.9161
         0.4444,         -0.9397,          0.4545,         -0.9595,          0.4646,         -0.9754,          0.4747,         -0.9874
         0.4848,         -0.9955,          0.4949,         -0.9995,          0.5051,         -0.9995,          0.5152,         -0.9955
         0.5253,         -0.9874,          0.5354,         -0.9754,          0.5455,         -0.9595,          0.5556,         -0.9397
         0.5657,         -0.9161,          0.5758,         -0.8888,          0.5859,          -0.858,           0.596,         -0.8237
         0.6061,         -0.7861,          0.6162,         -0.7453,          0.6263,         -0.7015,          0.6364,         -0.6549
         0.6465,         -0.6056,          0.6566,         -0.5539,          0.6667,            -0.5,          0.6768,         -0.4441
         0.6869,         -0.3863,           0.697,         -0.3271,          0.7071,         -0.2665,          0.7172,         -0.2048
         0.7273,         -0.1423,          0.7374,         -0.0792,          0.7475,         -0.0159,          0.7576,          0.0476
         0.7677,          0.1108,          0.7778,          0.1736,          0.7879,          0.2358,           0.798,          0.2969
** ... 5 like lines cut
*Amplitude, name=amp_supination
             0.,              0.,          0.0101,          0.0634,          0.0202,          0.1266,          0.0303,          0.1893
         0.0404,          0.2511,          0.0505,           0.312,          0.0606,          0.3717,          0.0707,          0.4298
         0.0808,          0.4862,          0.0909,          0.5406,           0.101,          0.5929,          0.1111,          0.6428
         0.1212,          0.6901,          0.1313,          0.7346,          0.1414,          0.7761,          0.1515,          0.8146
         0.1616,          0.8497,          0.1717,          0.8815,          0.1818,          0.9096,          0.1919,          0.9341
          0.202,          0.9549,          0.2121,          0.9718,          0.2222,          0.9848,          0.2323,          0.9938
         0.2424,          0.9989,          0.2525,          0.9999,          0.2626,          0.9969,          0.2727,          0.9898
         0.2828,          0.9788,          0.2929,          0.9638,           0.303,           0.945,          0.3131,          0.9224
         0.3232,           0.896,          0.3333,           0.866,          0.3434,          0.8326,          0.3535,          0.7958
         0.3636,          0.7557,          0.3737,          0.7127,          0.3838,          0.6668,          0.3939,          0.6182
          0.404,          0.5671,          0.4141,          0.5137,          0.4242,          0.4582,          0.4343,          0.4009
         0.4444,           0.342,          0.4545,          0.2817,          0.4646,          0.2203,          0.4747,           0.158
         0.4848,          0.0951,          0.4949,          0.0317,          0.5051,         -0.0317,          0.5152,         -0.0951
         0.5253,          -0.158,          0.5354,         -0.2203,          0.5455,         -0.2817,          0.5556,          -0.342
         0.5657,         -0.4009,          0.5758,         -0.4582,          0.5859,         -0.5137,           0.596,         -0.5671
         0.6061,         -0.6182,          0.6162,         -0.6668,          0.6263,         -0.7127,          0.6364,         -0.7557
         0.6465,         -0.7958,          0.6566,         -0.8326,          0.6667,          -0.866,          0.6768,          -0.896
         0.6869,         -0.9224,           0.697,          -0.945,          0.7071,         -0.9638,          0.7172,         -0.9788
         0.7273,         -0.9898,          0.7374,         -0.9969,          0.7475,         -0.9999,          0.7576,         -0.9989
         0.7677,         -0.9938,          0.7778,         -0.9848,          0.7879,         -0.9718,           0.798,         -0.9549
** ... 5 like lines cut
*Amplitude, name=ramp_0
             0.,              0.,              1.,              0.
*Amplitude, name=ramp_1
             0.,              0.,              1.,              1.
** 
** MATERIALS
** 
*Material, name=bone
*Elastic
1000., 0.4
*Material, name=foam
*Elastic
25., 0.4
*Material, name=polymer
*Density
 1e-09,
*Hyperelastic, marlow, moduli=INSTANTANEOUS, poisson=0.49
*Uniaxial Test Data
    0.,   0.
  2.31, 0.01
  3.47, 0.02
  4.57, 0.03
  5.43, 0.04
  6.13, 0.05
  6.76, 0.06
  7.28, 0.07
  7.76, 0.08
  8.42,  0.1
  9.36, 0.13
 10.13, 0.15
 11.25,  0.2
 13.05,  0.3
 14.49,  0.4
 15.75,  0.5
 16.88,  0.6
 17.91,  0.7
  18.9, 0.81
 19.94, 0.91
** ... 14 like lines cut
*Viscoelastic, time=RELAXATION TEST DATA
*Shear Test Data
     1.,  0.1
  0.999,  0.2
 0.9985,  0.3
 0.9978,  0.4
 0.9971,  0.5
 0.9961,  0.6
 0.9952,  0.7
 0.9937,  0.8
 0.9927,  0.9
 0.9918,   1.
  0.984,   2.
 0.9793,   3.
 0.9737,   4.
 0.9691,   5.
 0.9653,   6.
 0.9619,   7.
 0.9589,   8.
  0.956,   9.
 0.9531,  10.
  0.932,  20.
** ... 18 like lines cut
** 
** INTERACTION PROPERTIES
** 
*Surface Interaction, name=IntProp-1
1.,
*Friction, slip tolerance=0.005
 0.1,
*Surface Behavior, pressure-overclosure=LINEAR
100., 
** ----------------------------------------------------------------
** 
** STEP: defined_pose
** 
*Step, name=defined_pose, nlgeom=YES, inc=5000
*Static, stabilize, factor=0.0002, allsdtol=0, continue=NO
1e-05, 1., 1e-05, 0.1
** 
** BOUNDARY CONDITIONS
** 
** Name: fix_LM Type: Displacement/Rotation
*Boundary
LM, 1, 1
LM, 2, 2
LM, 3, 3
LM, 4, 4
LM, 5, 5
LM, 6, 6
** Name: fix_shank Type: Displacement/Rotation
*Boundary
RPshank, 1, 1
RPshank, 2, 2
RPshank, 3, 3
RPshank, 4, 4
RPshank, 5, 5
RPshank, 6, 6
**  
*include, input=morph_include_20dfx_30sup_bcs.inc
** 
** OUTPUT REQUESTS
** 
*Restart, write, frequency=0
** 
** FIELD OUTPUT: F-Output-1
** 
*Output, field, variable=PRESELECT
** 
** HISTORY OUTPUT: Node Movement
** 
*Output, history
*Node Output, nset=Node
U1, U2, U3, UR1, UR2, UR3
** 
** HISTORY OUTPUT: Subtalar_Rotation
** 
*Output, history, sensor, name=Subtalar_Rotation
*Element Output, elset=subtalar_axis
CUR1, 
** 
** HISTORY OUTPUT: Talocrural_Rotation
** 
*Output, history, sensor, name=Talocrural_Rotation
*Element Output, elset=talocrural_axis
CUR1, 
*End Step
